cdfs/cdf_stagg-5.txt
TAPE
 14/05/14 DEE/CCET/UFSCar      100.0  2012 S 5-BUS TEST SYSTEM
BUS DATA FOLLOWS                      5 ITEMS
   1 North  Bus 1  1  1  3  1.060   0.00      0.0      0.0      0.0     0.0     0.0  1.060  9999.9 -9999.9     0.0     0.0    1    1
   2 South  Bus 2  1  1  2  1.020   0.00     20.0     10.0     40.0     0.0     0.0  1.000  9999.9 -9999.9     0.0     0.0    2    2
   3 Lake   Bus 3  1  1  0  1.000   0.00     45.0     15.0      0.0     0.0     0.0    0.0     0.0     0.0     0.0     0.0    0    3
   4 Main   Bus 4  1  1  0  1.000   0.00     40.0      5.0      0.0     0.0     0.0    0.0     0.0     0.0     0.0     0.0    0    4
   5 Elm    Bus 5  1  1  0  1.000   0.00     60.0     10.0      0.0     0.0     0.0    0.0     0.0     0.0     0.0     0.0    0    5
-999 
BRANCH DATA FOLLOWS                   7 ITEMS
   1    2  1  1 1 0      0.02      0.06     0.060     0     0     0    0 0     0.0     0.0    0.0    0.0    0.0     0.0    0.0     1
   1    3  1  1 1 0      0.08      0.24     0.050     0     0     0    0 0     0.0     0.0    0.0    0.0    0.0     0.0    0.0     2
   2    3  1  1 1 0      0.06      0.18     0.040     0     0     0    0 0     0.0     0.0    0.0    0.0    0.0     0.0    0.0     3
   2    4  1  1 1 0      0.06      0.18     0.040     0     0     0    0 0     0.0     0.0    0.0    0.0    0.0     0.0    0.0     4
   2    5  1  1 1 0      0.04      0.12     0.030     0     0     0    0 0     0.0     0.0    0.0    0.0    0.0     0.0    0.0     5
   3    4  1  1 1 0      0.01      0.03     0.020     0     0     0    0 0     0.0     0.0    0.0    0.0    0.0     0.0    0.0     6
   4    5  1  1 1 0      0.08      0.24     0.050     0     0     0    0 0     0.0     0.0    0.0    0.0    0.0     0.0    0.0     7
-999
LOSS ZONES FOLLOWS                    1 ITEMS
  1 5-BUS
-99
INTERCHANGE DATA FOLLOWS              0 ITEMS
-9
TIE LINES FOLLOWS                     0 ITEMS
-999
END OF DATA
